ZINC000006385462
                    3D
 Schrodinger Suite 2020-1.
 18 18  0  0  1  0            999 V2000
   -0.6208    1.3250    0.1045 C   0  0  0  0  0  0
   -0.0518    0.0261    0.1392 O   0  0  0  0  0  0
    1.3565    0.0217   -0.0790 C   0  0  0  0  0  0
    1.8570   -1.4307   -0.0262 C   0  0  1  0  0  0
    1.3634   -2.1211   -1.1069 O   0  0  0  0  0  0
    3.3484   -1.5566    0.0088 C   0  0  0  0  0  0
    3.6933   -2.1859    1.1364 C   0  0  0  0  0  0
    2.4824   -2.4751    1.8745 C   0  0  0  0  0  0
    2.3956   -3.0496    2.9574 O   0  0  0  0  0  0
    1.4349   -1.9846    1.1774 O   0  0  0  0  0  0
   -1.6941    1.2568    0.2819 H   0  0  0  0  0  0
   -0.4723    1.7979   -0.8676 H   0  0  0  0  0  0
   -0.1949    1.9679    0.8763 H   0  0  0  0  0  0
    1.6124    0.4616   -1.0456 H   0  0  0  0  0  0
    1.8595    0.6017    0.6984 H   0  0  0  0  0  0
    1.6382   -3.0366   -1.0196 H   0  0  0  0  0  0
    3.9763   -1.1813   -0.7863 H   0  0  0  0  0  0
    4.6794   -2.4544    1.4856 H   0  0  0  0  0  0
  1  2  1  0  0  0
  1 11  1  0  0  0
  1 12  1  0  0  0
  1 13  1  0  0  0
  2  3  1  0  0  0
  3  4  1  0  0  0
  3 14  1  0  0  0
  3 15  1  0  0  0
  4 10  1  0  0  0
  4  5  1  0  0  0
  4  6  1  0  0  0
  5 16  1  0  0  0
  6  7  2  0  0  0
  6 17  1  0  0  0
  7  8  1  0  0  0
  7 18  1  0  0  0
  8  9  2  0  0  0
  8 10  1  0  0  0
M  END
> <i_m_ct_stereo_status>
1

> <s_m_entry_id>
149

> <s_m_entry_name>
ZINC000006385462.1

> <s_m_Source_Path>
/home/agruzka/frag_libraries/zinc_filtered_sdfs

> <s_m_Source_File>
ZINC000006385462.sdf

> <i_m_Source_File_Index>
1

> <s_m_source_file>
ligprep_1.maegz

> <i_m_source_file_index>
11

> <i_lp_mmshare_version>
49012

> <s_epik_input>
W0NIM11PW0NIMl1bQ0BAXTEoW09IXSlbQ0hdPVtDSF1DKD1PKU8x

> <s_epik_cmdline>
J2VwaWtfcHl0aG9uJywgJy1waCcsICc3LjAnLCAnLXRuJywgJzgnLCAnLW1hJywgJzIwMCcsICctaW1hZScsICc8aW5maWxlLm1hZT4nLCAnLW9tYWUnLCAnPG91dGZpbGUubWFlPic=

> <r_epik_Ionization_Penalty>
  0.0760

> <r_epik_Ionization_Penalty_Charging>
  0.0000

> <r_epik_Ionization_Penalty_Neutral>
  0.0760

> <r_epik_State_Penalty>
  0.0671

> <r_epik_Charging_Adjusted_Penalty>
0.0670510165934645

> <i_epik_Tot_Q>
0

> <i_epik_Tot_abs_Q>
0

> <s_epik_Chemistry_Notes>
This compound has an ester and may undergo hydrolysis at high or low pH.

> <i_f3d_flags>
0

> <s_lp_Force_Field>
OPLS3e

> <r_lp_Energy>
-0.408573

> <b_lp_Chiralities_Consistent>
1

> <s_lp_Variant>
ZINC000006385462-1

> <s_m_job_name>
ligprep_1

> <s_m_subgroup_title>
ligprep_1-out1

> <s_m_subgroupid>
ligprep_1-out1

> <b_m_subgroup_collapsed>
0

$$$$
