ZINC000005810814
                    3D
 Schrodinger Suite 2020-1.
 20 19  0  0  1  0            999 V2000
   -2.1516    2.9160    0.0000 C   0  0  0  0  0  0
   -1.8088    1.4232   -0.0000 C   0  0  0  0  0  0
   -0.3966    1.2762    0.0001 O   0  0  0  0  0  0
    0.0235   -0.0779   -0.0000 C   0  0  0  0  0  0
    1.4784   -0.1141    0.0001 N   0  0  0  0  0  0
    2.2045   -1.3366    0.0000 C   0  0  0  0  0  0
    3.6005   -1.0659   -0.0001 N   0  0  0  0  0  0
    1.6469   -2.4885    0.0001 N   0  0  0  0  0  0
    2.3117   -3.6443   -0.0001 C   0  0  0  0  0  0
    2.9284   -4.6240    0.0003 N   0  0  0  0  0  0
   -3.2312    3.0687   -0.0000 H   0  0  0  0  0  0
   -1.7454    3.4127   -0.8817 H   0  0  0  0  0  0
   -1.7454    3.4127    0.8817 H   0  0  0  0  0  0
   -2.2407    0.9461    0.8817 H   0  0  0  0  0  0
   -2.2407    0.9461   -0.8817 H   0  0  0  0  0  0
   -0.3587   -0.5916    0.8846 H   0  0  0  0  0  0
   -0.3586   -0.5915   -0.8845 H   0  0  0  0  0  0
    1.9651    0.7701   -0.0004 H   0  0  0  0  0  0
    4.2922   -1.8018   -0.0002 H   0  0  0  0  0  0
    3.9704   -0.1266   -0.0002 H   0  0  0  0  0  0
  1  2  1  0  0  0
  1 11  1  0  0  0
  1 12  1  0  0  0
  1 13  1  0  0  0
  2  3  1  0  0  0
  2 14  1  0  0  0
  2 15  1  0  0  0
  3  4  1  0  0  0
  4  5  1  0  0  0
  4 16  1  0  0  0
  4 17  1  0  0  0
  5  6  1  0  0  0
  5 18  1  0  0  0
  6  7  1  0  0  0
  6  8  2  0  0  0
  7 19  1  0  0  0
  7 20  1  0  0  0
  8  9  1  0  0  0
  9 10  3  0  0  0
M  END
> <i_m_ct_stereo_status>
1

> <s_m_entry_id>
148

> <s_m_entry_name>
ZINC000005810814.1

> <s_m_Source_Path>
/home/agruzka/frag_libraries/zinc_filtered_sdfs

> <s_m_Source_File>
ZINC000005810814.sdf

> <i_m_Source_File_Index>
1

> <s_m_source_file>
ligprep_1.maegz

> <i_m_source_file_index>
10

> <i_lp_mmshare_version>
49012

> <s_epik_input>
W0NIM11bQ0gyXU9bQ0gyXVtOSF0vQyg9Ti9bSF0pW05IXUMjTg==

> <s_epik_cmdline>
J2VwaWtfcHl0aG9uJywgJy1waCcsICc3LjAnLCAnLXRuJywgJzgnLCAnLW1hJywgJzIwMCcsICctaW1hZScsICc8aW5maWxlLm1hZT4nLCAnLW9tYWUnLCAnPG91dGZpbGUubWFlPic=

> <r_epik_Ionization_Penalty>
  0.0000

> <r_epik_Ionization_Penalty_Charging>
  0.0000

> <r_epik_Ionization_Penalty_Neutral>
  0.0000

> <r_epik_State_Penalty>
  0.0005

> <r_epik_Charging_Adjusted_Penalty>
0.000525381922387114

> <i_epik_Tot_Q>
0

> <i_epik_Tot_abs_Q>
0

> <s_epik_Chemistry_Notes>
This compound has an imine and may undergo hydrolysis. This compound contains an acetal/aminal-like group ( X-CH(R)-Y where X, Y are N, S, or O) that may be acid/base labile, releasing an aldehyde.

> <i_f3d_flags>
0

> <s_lp_Force_Field>
OPLS3e

> <r_lp_Energy>
1.206389

> <b_lp_Chiralities_Consistent>
1

> <s_lp_Variant>
ZINC000005810814-1

> <s_m_job_name>
ligprep_1

> <s_m_subgroup_title>
ligprep_1-out1

> <s_m_subgroupid>
ligprep_1-out1

> <b_m_subgroup_collapsed>
0

$$$$
